
     RDKit          3D

 14 15  0  0  0  0  0  0  0  0999 V2000
    5.7760  -32.6610  -32.7650 C   0  0  0  0  0  0  0  0  0  0  0  0
    9.4600  -34.7640  -33.7500 C   0  0  0  0  0  0  0  0  0  0  0  0
   10.5100  -32.4140  -30.0150 O   0  0  0  0  0  0  0  0  0  0  0  0
    5.6920  -34.2980  -34.4950 C   0  0  0  0  0  0  0  0  0  0  0  0
    4.8650  -33.1740  -33.8150 C   0  0  0  0  0  0  0  0  0  0  0  0
    8.0470  -32.0470  -31.5410 C   0  0  0  0  0  0  0  0  0  0  0  0
   10.0760  -33.6090  -31.9230 C   0  0  0  0  0  0  0  0  0  0  0  0
    6.6380  -32.0220  -32.0550 C   0  0  0  0  0  0  0  0  0  0  0  0
    8.8210  -33.1470  -32.2480 C   0  0  0  0  0  0  0  0  0  0  0  0
   10.9400  -33.0960  -30.8980 C   0  0  0  0  0  0  0  0  0  0  0  0
    8.2450  -33.9040  -33.3470 C   0  0  0  0  0  0  0  0  0  0  0  0
   10.5220  -34.5070  -32.7880 N   0  0  0  0  0  0  0  0  0  0  0  0
   12.1470  -33.4440  -30.9460 O   0  0  0  0  0  0  0  0  0  0  0  0
    7.0760  -34.3220  -34.0260 C   0  0  0  0  0  0  0  0  0  0  0  0
  1  8  1  0
  2 11  2  0
  2 12  1  0
  4 14  1  0
  4  5  1  0
  5  1  1  0
  7 10  1  0
  8  6  1  0
  9  7  2  0
  9  6  1  0
 10  3  1  0
 11  9  1  0
 12  7  1  0
 13 10  2  0
 14 11  1  0
M  END
$$$$

     RDKit          3D

 21 23  0  0  0  0  0  0  0  0999 V2000
    8.1960  -35.6310  -35.7710 C   0  0  0  0  0  0  0  0  0  0  0  0
    7.6670  -31.9250  -31.3560 C   0  0  0  0  0  0  0  0  0  0  0  0
   10.7690  -33.6380  -30.6070 C   0  0  0  0  0  0  0  0  0  0  0  0
    6.8900  -33.2390  -33.2340 C   0  0  0  0  0  0  0  0  0  0  0  0
   10.5750  -34.8920  -34.0650 O   0  0  0  0  0  0  0  0  0  0  0  0
    6.4720  -31.3790  -31.3090 C   0  0  0  0  0  0  0  0  0  0  0  0
    4.6270  -34.5850  -35.0530 C   0  0  0  0  0  0  0  0  0  0  0  0
    8.3470  -34.8420  -34.6020 C   0  0  0  0  0  0  0  0  0  0  0  0
    8.1550  -32.6360  -32.6320 C   0  0  0  0  0  0  0  0  0  0  0  0
    6.8290  -35.4730  -36.1520 N   0  0  0  0  0  0  0  0  0  0  0  0
    8.3940  -31.8290  -30.0910 O   0  0  0  0  0  0  0  0  0  0  0  0
   11.6330  -32.0660  -28.8380 C   0  0  0  0  0  0  0  0  0  0  0  0
    5.6350  -32.7880  -32.9900 N   0  0  0  0  0  0  0  0  0  0  0  0
   11.6750  -34.2090  -31.2790 O   0  0  0  0  0  0  0  0  0  0  0  0
    6.1220  -34.7350  -35.1640 C   0  0  0  0  0  0  0  0  0  0  0  0
   11.0080  -32.3820  -30.0990 O   0  0  0  0  0  0  0  0  0  0  0  0
    7.1280  -34.2190  -34.2960 C   0  0  0  0  0  0  0  0  0  0  0  0
    5.4590  -31.7820  -32.1070 C   0  0  0  0  0  0  0  0  0  0  0  0
    9.2060  -33.7440  -32.5540 C   0  0  0  0  0  0  0  0  0  0  0  0
    9.4760  -34.5580  -33.7610 C   0  0  0  0  0  0  0  0  0  0  0  0
    9.4370  -34.0770  -31.0700 C   0  0  0  0  0  0  0  0  0  0  0  0
  2  6  1  0
  2 11  1  0
  3 16  1  0
  4 13  2  0
  5 20  2  0
  8  1  1  0
  8 17  1  0
  8 20  1  0
  9  4  1  0
  9 19  1  0
  9  2  1  0
 10  1  2  0
 10 15  1  0
 13 18  1  0
 14  3  2  0
 15  7  1  0
 15 17  2  0
 16 12  1  0
 17  4  1  0
 18  6  2  0
 19 21  1  0
 20 19  1  0
 21  3  1  0
M  END
$$$$

     RDKit          3D

 26 28  0  0  0  0  0  0  0  0999 V2000
    8.7340  -35.7820  -35.9890 O   0  0  0  0  0  0  0  0  0  0  0  0
   10.1990  -32.4930  -30.9770 C   0  0  0  0  0  0  0  0  0  0  0  0
   12.4030  -33.6900  -30.4950 C   0  0  0  0  0  0  0  0  0  0  0  0
    9.5230  -32.6100  -29.6230 C   0  0  0  0  0  0  0  0  0  0  0  0
    9.9340  -33.6690  -31.9430 C   0  0  0  0  0  0  0  0  0  0  0  0
    7.5360  -31.7530  -30.5740 O   0  0  0  0  0  0  0  0  0  0  0  0
    5.0190  -31.6150  -30.5400 O   0  0  0  0  0  0  0  0  0  0  0  0
   12.2920  -34.4170  -31.8650 C   0  0  0  0  0  0  0  0  0  0  0  0
    4.2690  -33.9120  -34.4200 C   0  0  0  0  0  0  0  0  0  0  0  0
    6.7540  -33.6250  -33.9580 C   0  0  0  0  0  0  0  0  0  0  0  0
    5.8700  -35.4830  -35.4190 C   0  0  0  0  0  0  0  0  0  0  0  0
   10.5240  -34.9230  -33.7850 C   0  0  0  0  0  0  0  0  0  0  0  0
    3.2230  -33.0680  -33.7330 C   0  0  0  0  0  0  0  0  0  0  0  0
   11.2870  -35.3380  -34.7290 O   0  0  0  0  0  0  0  0  0  0  0  0
    4.5410  -35.0140  -35.3280 C   0  0  0  0  0  0  0  0  0  0  0  0
    8.3640  -35.1700  -34.9580 C   0  0  0  0  0  0  0  0  0  0  0  0
   11.6990  -32.3550  -30.8340 C   0  0  0  0  0  0  0  0  0  0  0  0
    8.9030  -33.9390  -32.7660 N   0  0  0  0  0  0  0  0  0  0  0  0
    3.7010  -32.0070  -31.1780 C   0  0  0  0  0  0  0  0  0  0  0  0
   10.9790  -34.5170  -32.4830 C   0  0  0  0  0  0  0  0  0  0  0  0
    1.9350  -32.5880  -34.4070 C   0  0  0  0  0  0  0  0  0  0  0  0
    5.3540  -33.2190  -33.7550 C   0  0  0  0  0  0  0  0  0  0  0  0
    3.6200  -32.4020  -32.4060 C   0  0  0  0  0  0  0  0  0  0  0  0
    9.1880  -34.7330  -33.8470 C   0  0  0  0  0  0  0  0  0  0  0  0
    8.1660  -31.9260  -29.9380 C   0  0  0  0  0  0  0  0  0  0  0  0
    6.9440  -34.7770  -34.7800 C   0  0  0  0  0  0  0  0  0  0  0  0
  1 16  2  0
  2 17  1  0
  2  4  1  0
  5  2  1  0
  6 25  2  0
  8  3  1  0
  9 22  1  0
  9 13  1  0
 10 22  2  0
 11 15  1  0
 11 26  2  0
 12 20  1  0
 13 23  2  0
 14 12  1  0
 15  9  2  0
 16 26  1  0
 16 24  1  0
 17  3  1  0
 18  5  2  0
 19  7  1  0
 20  5  1  0
 20  8  2  0
 21 13  1  0
 23 19  2  0
 24 12  2  0
 24 18  1  0
 25  4  1  0
 26 10  1  0
M  END
$$$$

     RDKit          3D

 29 32  0  0  0  0  0  0  0  0999 V2000
    3.6390  -34.7420  -37.7210 C   0  0  0  0  0  0  0  0  0  0  0  0
    4.6920  -36.2980  -36.1600 C   0  0  0  0  0  0  0  0  0  0  0  0
    6.8330  -36.0540  -37.6180 O   0  0  0  0  0  0  0  0  0  0  0  0
    3.4070  -35.9320  -36.8510 C   0  0  0  0  0  0  0  0  0  0  0  0
    6.7520  -35.0720  -35.4900 C   0  0  0  0  0  0  0  0  0  0  0  0
   11.4770  -35.3980  -33.8350 C   0  0  0  0  0  0  0  0  0  0  0  0
    8.6430  -31.9860  -30.6820 C   0  0  0  0  0  0  0  0  0  0  0  0
    6.5770  -31.1820  -30.9730 C   0  0  0  0  0  0  0  0  0  0  0  0
    8.1760  -35.7280  -37.3840 C   0  0  0  0  0  0  0  0  0  0  0  0
   11.6310  -32.8290  -29.1030 O   0  0  0  0  0  0  0  0  0  0  0  0
   12.1190  -34.0600  -33.7010 C   0  0  0  0  0  0  0  0  0  0  0  0
    9.6250  -31.9150  -29.6620 N   0  0  0  0  0  0  0  0  0  0  0  0
    9.0810  -34.5350  -35.1090 C   0  0  0  0  0  0  0  0  0  0  0  0
    6.1160  -32.0400  -31.9560 C   0  0  0  0  0  0  0  0  0  0  0  0
    8.4410  -33.5190  -32.6930 C   0  0  0  0  0  0  0  0  0  0  0  0
    8.8070  -34.8700  -38.4120 C   0  0  0  0  0  0  0  0  0  0  0  0
    5.1760  -34.3940  -37.6220 C   0  0  0  0  0  0  0  0  0  0  0  0
    5.8750  -35.4000  -36.7490 C   0  0  0  0  0  0  0  0  0  0  0  0
   10.1820  -35.4320  -33.1190 O   0  0  0  0  0  0  0  0  0  0  0  0
    8.1740  -35.5220  -35.8130 C   0  0  0  0  0  0  0  0  0  0  0  0
    7.7400  -31.0380  -30.5090 N   0  0  0  0  0  0  0  0  0  0  0  0
   10.4210  -33.4180  -31.0250 N   0  0  0  0  0  0  0  0  0  0  0  0
    3.6280  -32.4130  -32.6340 C   0  0  0  0  0  0  0  0  0  0  0  0
    7.0260  -32.8390  -32.6590 C   0  0  0  0  0  0  0  0  0  0  0  0
    9.2280  -33.0700  -31.5730 C   0  0  0  0  0  0  0  0  0  0  0  0
    8.5080  -36.9130  -35.3100 C   0  0  0  0  0  0  0  0  0  0  0  0
    4.7920  -32.0290  -32.1490 O   0  0  0  0  0  0  0  0  0  0  0  0
    9.2070  -34.5330  -33.5870 C   0  0  0  0  0  0  0  0  0  0  0  0
   10.6360  -32.7560  -29.8630 C   0  0  0  0  0  0  0  0  0  0  0  0
  1 17  1  0
  1  4  2  0
  3  9  1  0
  3 18  1  0
  4  2  1  0
  6 11  1  0
  6 19  1  0
  7 21  1  0
  7 12  2  0
  8 21  1  0
  9 16  1  0
  9 20  1  0
 14  8  2  0
 15 24  2  0
 15 25  1  0
 18 17  1  0
 18  2  1  0
 18  5  1  0
 20  5  1  0
 20 26  1  0
 20 13  1  0
 22 29  1  0
 23 27  1  0
 24 14  1  0
 25 22  2  0
 25  7  1  0
 27 14  1  0
 28 13  1  0
 28 19  1  0
 28 15  1  0
 29 12  1  0
 29 10  2  0
M  END
$$$$

     RDKit          3D

 11 12  0  0  0  0  0  0  0  0999 V2000
    4.4020  -34.2820  -34.7690 C   0  0  0  0  0  0  0  0  0  0  0  0
    7.7640  -33.6980  -33.1590 C   0  0  0  0  0  0  0  0  0  0  0  0
    8.9470  -33.3820  -32.2550 C   0  0  0  0  0  0  0  0  0  0  0  0
    5.6790  -32.3130  -32.6280 N   0  0  0  0  0  0  0  0  0  0  0  0
    7.6800  -31.6710  -30.8650 C   0  0  0  0  0  0  0  0  0  0  0  0
    8.0440  -34.6380  -34.0980 N   0  0  0  0  0  0  0  0  0  0  0  0
    5.8390  -34.2150  -34.3310 C   0  0  0  0  0  0  0  0  0  0  0  0
    6.3340  -31.4820  -31.5320 C   0  0  0  0  0  0  0  0  0  0  0  0
    6.7940  -35.0700  -34.8320 C   0  0  0  0  0  0  0  0  0  0  0  0
    8.8350  -32.4420  -31.1730 C   0  0  0  0  0  0  0  0  0  0  0  0
    6.4190  -33.3000  -33.3140 C   0  0  0  0  0  0  0  0  0  0  0  0
  1  7  1  0
  2  3  2  0
  3 10  1  0
  4  8  2  0
  6  2  1  0
  7 11  2  0
  8  5  1  0
  9  7  1  0
  9  6  2  0
 10  5  2  0
 11  2  1  0
 11  4  1  0
M  END
$$$$

     RDKit          3D

 23 25  0  0  0  0  0  0  0  0999 V2000
   10.2330  -34.7070  -33.4520 C   0  0  0  0  0  0  0  0  0  0  0  0
    9.5550  -37.2970  -34.1960 O   0  0  0  0  0  0  0  0  0  0  0  0
    9.1450  -33.7390  -32.8900 C   0  0  0  0  0  0  0  0  0  0  0  0
    8.1490  -31.8650  -30.7250 C   0  0  0  0  0  0  0  0  0  0  0  0
    3.6700  -34.8380  -36.9030 C   0  0  0  0  0  0  0  0  0  0  0  0
    5.1350  -34.9410  -36.3970 C   0  0  0  0  0  0  0  0  0  0  0  0
    7.3770  -35.6120  -37.1100 C   0  0  0  0  0  0  0  0  0  0  0  0
    6.4420  -35.6800  -34.7430 C   0  0  0  0  0  0  0  0  0  0  0  0
    5.4530  -34.8940  -35.1690 C   0  0  0  0  0  0  0  0  0  0  0  0
    5.2080  -33.9080  -34.3530 C   0  0  0  0  0  0  0  0  0  0  0  0
    9.8660  -33.1580  -31.8650 C   0  0  0  0  0  0  0  0  0  0  0  0
    4.5220  -33.3600  -33.7870 N   0  0  0  0  0  0  0  0  0  0  0  0
   11.1580  -33.5060  -31.9560 N   0  0  0  0  0  0  0  0  0  0  0  0
    9.4090  -32.3900  -30.8380 C   0  0  0  0  0  0  0  0  0  0  0  0
    7.1520  -32.0830  -31.7040 C   0  0  0  0  0  0  0  0  0  0  0  0
    7.6850  -35.6620  -35.6440 C   0  0  0  0  0  0  0  0  0  0  0  0
    9.9800  -35.9530  -34.4230 S   0  0  0  0  0  0  0  0  0  0  0  0
   11.3640  -34.4010  -32.9750 C   0  0  0  0  0  0  0  0  0  0  0  0
    6.1410  -35.3370  -37.5600 C   0  0  0  0  0  0  0  0  0  0  0  0
   10.9950  -35.6540  -35.4900 O   0  0  0  0  0  0  0  0  0  0  0  0
    7.4710  -32.9310  -32.8090 C   0  0  0  0  0  0  0  0  0  0  0  0
    8.8860  -35.4040  -35.2720 O   0  0  0  0  0  0  0  0  0  0  0  0
    5.7490  -31.4920  -31.4290 C   0  0  0  0  0  0  0  0  0  0  0  0
  1 17  1  0
  1 18  1  0
  1  3  1  0
  3 21  2  0
  3 11  1  0
  6  5  1  0
  6  9  1  0
  7 16  1  0
  9  8  1  0
  9 10  1  0
 10 12  2  0
 11 14  2  0
 13 11  1  0
 14  4  1  0
 15 23  1  0
 15  4  2  0
 16 22  1  0
 16  8  1  0
 17  2  1  0
 18 13  1  0
 19  7  1  0
 19  6  1  0
 20 17  1  0
 21 15  1  0
 22 17  1  0
M  END
$$$$

     RDKit          3D

 20 21  0  0  0  0  0  0  0  0999 V2000
    5.5760  -35.8100  -35.6690 C   0  0  0  0  0  0  0  0  0  0  0  0
   11.6130  -36.2630  -34.6610 O   0  0  0  0  0  0  0  0  0  0  0  0
    6.6740  -35.5600  -34.7420 C   0  0  0  0  0  0  0  0  0  0  0  0
    3.4180  -34.1550  -36.4300 C   0  0  0  0  0  0  0  0  0  0  0  0
   11.3810  -33.7570  -31.8890 C   0  0  0  0  0  0  0  0  0  0  0  0
    9.6550  -34.7050  -33.6530 C   0  0  0  0  0  0  0  0  0  0  0  0
    8.7770  -32.6290  -31.7210 C   0  0  0  0  0  0  0  0  0  0  0  0
    9.5330  -32.9520  -30.3990 C   0  0  0  0  0  0  0  0  0  0  0  0
   12.5670  -33.2190  -32.1300 O   0  0  0  0  0  0  0  0  0  0  0  0
   10.7540  -33.0040  -30.5930 C   0  0  0  0  0  0  0  0  0  0  0  0
    6.6000  -34.3610  -34.0550 C   0  0  0  0  0  0  0  0  0  0  0  0
   11.0460  -34.6280  -33.2410 C   0  0  0  0  0  0  0  0  0  0  0  0
    8.7830  -33.7700  -32.7780 C   0  0  0  0  0  0  0  0  0  0  0  0
    5.5120  -33.4160  -34.3450 C   0  0  0  0  0  0  0  0  0  0  0  0
    7.4600  -33.8670  -33.2860 O   0  0  0  0  0  0  0  0  0  0  0  0
    4.6670  -34.7500  -35.7380 C   0  0  0  0  0  0  0  0  0  0  0  0
   12.0520  -35.2210  -33.9170 C   0  0  0  0  0  0  0  0  0  0  0  0
   11.6240  -32.1430  -29.4240 S   0  0  0  0  0  0  0  0  0  0  0  0
    4.4460  -33.6610  -35.2420 N   0  0  0  0  0  0  0  0  0  0  0  0
   10.5110  -31.2430  -28.3960 C   0  0  0  0  0  0  0  0  0  0  0  0
  1  3  1  0
  2 17  1  0
  3 11  2  0
  4 16  1  0
  5  9  1  0
  5 10  1  0
  6 12  1  0
  6 13  1  0
  7  8  1  0
 10  8  1  0
 10 18  1  0
 11 15  1  0
 12 17  1  0
 12  5  1  0
 13 15  1  0
 13  7  1  0
 14 11  1  0
 16  1  2  0
 16 19  1  0
 18 20  1  0
 19 14  2  0
M  END
$$$$

     RDKit          3D

 16 17  0  0  0  0  0  0  0  0999 V2000
    6.9120  -32.6450  -33.1330 O   0  0  0  0  0  0  0  0  0  0  0  0
    8.8850  -36.0060  -34.5220 O   0  0  0  0  0  0  0  0  0  0  0  0
    6.5440  -34.5640  -34.1960 N   0  0  0  0  0  0  0  0  0  0  0  0
    4.1650  -34.1380  -34.6990 C   0  0  0  0  0  0  0  0  0  0  0  0
    3.1520  -33.4380  -34.6200 O   0  0  0  0  0  0  0  0  0  0  0  0
    8.6630  -34.3750  -32.9760 N   0  0  0  0  0  0  0  0  0  0  0  0
    5.4030  -33.7740  -34.2080 C   0  0  0  0  0  0  0  0  0  0  0  0
   10.1940  -33.0310  -31.4480 C   0  0  0  0  0  0  0  0  0  0  0  0
   11.5220  -33.5960  -31.9060 C   0  0  0  0  0  0  0  0  0  0  0  0
    9.3880  -35.3570  -33.7330 C   0  0  0  0  0  0  0  0  0  0  0  0
    8.9840  -33.9500  -31.6340 C   0  0  0  0  0  0  0  0  0  0  0  0
    5.6250  -32.5440  -33.5690 C   0  0  0  0  0  0  0  0  0  0  0  0
   11.5810  -34.2660  -33.3350 C   0  0  0  0  0  0  0  0  0  0  0  0
    4.0870  -35.2290  -35.2870 O   0  0  0  0  0  0  0  0  0  0  0  0
    7.4420  -33.8920  -33.4620 C   0  0  0  0  0  0  0  0  0  0  0  0
   10.8740  -35.5850  -33.2310 C   0  0  0  0  0  0  0  0  0  0  0  0
  2 10  2  0
  3 15  2  0
  4  5  1  0
  4  7  1  0
  6 11  1  0
  7  3  1  0
  7 12  2  0
  9  8  1  0
 10 16  1  0
 10  6  1  0
 11  8  1  0
 12  1  1  0
 13 16  1  0
 13  9  1  0
 14  4  2  0
 15  1  1  0
 15  6  1  0
M  END
$$$$

     RDKit          3D

 30 33  0  0  0  0  0  0  0  0999 V2000
    5.9950  -31.2140  -31.5030 S   0  0  0  0  0  0  0  0  0  0  0  0
    6.8850  -33.1700  -32.8140 C   0  0  0  0  0  0  0  0  0  0  0  0
    9.7620  -37.8200  -33.3690 C   0  0  0  0  0  0  0  0  0  0  0  0
    9.2910  -31.8310  -29.8650 C   0  0  0  0  0  0  0  0  0  0  0  0
    4.6610  -33.4910  -34.2930 N   0  0  0  0  0  0  0  0  0  0  0  0
    6.8250  -34.1420  -33.8570 C   0  0  0  0  0  0  0  0  0  0  0  0
    5.7250  -34.2620  -34.6000 C   0  0  0  0  0  0  0  0  0  0  0  0
    7.2360  -35.9550  -35.1720 N   0  0  0  0  0  0  0  0  0  0  0  0
    8.1350  -31.2310  -30.0200 N   0  0  0  0  0  0  0  0  0  0  0  0
    5.8480  -35.3450  -35.5860 C   0  0  0  0  0  0  0  0  0  0  0  0
    5.8140  -32.3460  -32.5830 C   0  0  0  0  0  0  0  0  0  0  0  0
   10.1570  -34.9570  -33.9180 C   0  0  0  0  0  0  0  0  0  0  0  0
    5.1400  -34.8670  -36.8180 C   0  0  0  0  0  0  0  0  0  0  0  0
    4.6630  -32.5950  -33.2890 C   0  0  0  0  0  0  0  0  0  0  0  0
   11.1030  -33.4000  -30.0900 O   0  0  0  0  0  0  0  0  0  0  0  0
   10.5190  -31.2180  -27.4870 O   0  0  0  0  0  0  0  0  0  0  0  0
    8.8560  -35.5480  -33.6030 C   0  0  0  0  0  0  0  0  0  0  0  0
   11.6730  -36.7080  -34.7780 C   0  0  0  0  0  0  0  0  0  0  0  0
   11.9430  -30.9460  -29.0970 O   0  0  0  0  0  0  0  0  0  0  0  0
    9.8850  -32.8490  -30.5310 C   0  0  0  0  0  0  0  0  0  0  0  0
   10.9070  -35.4150  -35.1380 C   0  0  0  0  0  0  0  0  0  0  0  0
    7.5260  -31.7030  -31.0930 C   0  0  0  0  0  0  0  0  0  0  0  0
    7.6990  -35.1640  -34.2450 N   0  0  0  0  0  0  0  0  0  0  0  0
    6.1450  -35.3300  -37.0340 C   0  0  0  0  0  0  0  0  0  0  0  0
    7.9430  -32.6970  -31.8950 C   0  0  0  0  0  0  0  0  0  0  0  0
    8.7180  -36.9390  -33.5690 C   0  0  0  0  0  0  0  0  0  0  0  0
   11.2570  -33.1790  -28.6830 C   0  0  0  0  0  0  0  0  0  0  0  0
   11.1960  -31.6780  -28.4320 C   0  0  0  0  0  0  0  0  0  0  0  0
   10.9140  -37.7750  -33.9440 C   0  0  0  0  0  0  0  0  0  0  0  0
    9.2750  -33.2060  -31.6650 C   0  0  0  0  0  0  0  0  0  0  0  0
  1 22  1  0
  2 11  1  0
  2 25  1  0
  5 14  1  0
  6  2  2  0
  7  5  2  0
  7  6  1  0
  8 23  1  0
  9  4  1  0
 10  7  1  0
 11  1  1  0
 12 17  1  0
 14 11  2  0
 15 27  1  0
 17 23  1  0
 17 26  1  0
 18 29  1  0
 19 28  2  0
 20 15  1  0
 20  4  2  0
 21 18  1  0
 21 12  1  0
 22  9  2  0
 23  6  1  0
 24 13  1  0
 24 10  1  0
 25 30  2  0
 25 22  1  0
 26  3  1  0
 27 28  1  0
 28 16  1  0
 29  3  2  0
 30 20  1  0
M  END
$$$$

     RDKit          3D

 18 20  0  0  0  0  0  0  0  0999 V2000
    7.9590  -35.3130  -34.6140 S   0  0  0  0  0  0  0  0  0  0  0  0
    9.1090  -34.6630  -33.5250 C   0  0  0  0  0  0  0  0  0  0  0  0
    8.5730  -33.7070  -32.7120 N   0  0  0  0  0  0  0  0  0  0  0  0
    4.8920  -35.0670  -35.2770 N   0  0  0  0  0  0  0  0  0  0  0  0
    6.8150  -34.2280  -33.9870 C   0  0  0  0  0  0  0  0  0  0  0  0
   11.4310  -36.1190  -35.0270 C   0  0  0  0  0  0  0  0  0  0  0  0
    7.2470  -33.5210  -33.0140 N   0  0  0  0  0  0  0  0  0  0  0  0
   11.6910  -35.1770  -33.9030 C   0  0  0  0  0  0  0  0  0  0  0  0
    4.6180  -33.2260  -34.1570 C   0  0  0  0  0  0  0  0  0  0  0  0
   10.1760  -32.3610  -29.8210 O   0  0  0  0  0  0  0  0  0  0  0  0
    3.7100  -34.6410  -35.6240 N   0  0  0  0  0  0  0  0  0  0  0  0
   10.6640  -33.9100  -32.0780 N   0  0  0  0  0  0  0  0  0  0  0  0
    9.5190  -33.3070  -31.7780 C   0  0  0  0  0  0  0  0  0  0  0  0
    9.3290  -32.4210  -30.6640 C   0  0  0  0  0  0  0  0  0  0  0  0
    3.5150  -33.5240  -34.9740 C   0  0  0  0  0  0  0  0  0  0  0  0
    8.1460  -31.6770  -30.5900 N   0  0  0  0  0  0  0  0  0  0  0  0
   10.4660  -34.7140  -33.1840 C   0  0  0  0  0  0  0  0  0  0  0  0
    5.4460  -34.1810  -34.4800 C   0  0  0  0  0  0  0  0  0  0  0  0
  1  5  1  0
  1  2  1  0
  2 17  2  0
  2  3  1  0
  3 13  1  0
  4 18  1  0
  5  7  2  0
  6  8  1  0
  7  3  1  0
  8 17  1  0
 11  4  2  0
 11 15  1  0
 12 13  2  0
 13 14  1  0
 14 16  1  0
 14 10  2  0
 15  9  2  0
 17 12  1  0
 18  9  1  0
 18  5  1  0
M  END
$$$$

     RDKit          3D

 15 16  0  0  0  0  0  0  0  0999 V2000
    8.7920  -34.9970  -34.4900 C   0  0  0  0  0  0  0  0  0  0  0  0
    7.0160  -33.8700  -33.6950 C   0  0  0  0  0  0  0  0  0  0  0  0
    9.9080  -35.7680  -34.6400 F   0  0  0  0  0  0  0  0  0  0  0  0
    3.9170  -34.6700  -35.4070 C   0  0  0  0  0  0  0  0  0  0  0  0
    9.7610  -32.2760  -33.3720 O   0  0  0  0  0  0  0  0  0  0  0  0
    8.3340  -34.2340  -33.6950 C   0  0  0  0  0  0  0  0  0  0  0  0
    6.1440  -32.5910  -32.9350 S   0  0  0  0  0  0  0  0  0  0  0  0
    7.9390  -35.8480  -35.4120 C   0  0  0  0  0  0  0  0  0  0  0  0
    4.5750  -33.0020  -33.6930 C   0  0  0  0  0  0  0  0  0  0  0  0
    4.8490  -34.0900  -34.5570 N   0  0  0  0  0  0  0  0  0  0  0  0
    6.1430  -34.5360  -34.5680 C   0  0  0  0  0  0  0  0  0  0  0  0
   10.9460  -34.0710  -32.7510 O   0  0  0  0  0  0  0  0  0  0  0  0
    9.4400  -33.3380  -32.6970 S   0  0  0  0  0  0  0  0  0  0  0  0
    9.1590  -33.2020  -31.2120 O   0  0  0  0  0  0  0  0  0  0  0  0
    6.5650  -35.4870  -35.3820 C   0  0  0  0  0  0  0  0  0  0  0  0
  1  6  1  0
  2  6  2  0
  2  7  1  0
  3  1  1  0
  4 10  1  0
  5 13  1  0
  6 13  1  0
  8 15  1  0
  8  1  2  0
  9  7  1  0
 10  9  1  0
 11 10  1  0
 11  2  1  0
 12 13  1  0
 13 14  1  0
 15 11  2  0
M  END
$$$$

     RDKit          3D

 11 12  0  0  0  0  0  0  0  0999 V2000
    7.7370  -32.0200  -31.4800 N   0  0  0  0  0  0  0  0  0  0  0  0
    6.6140  -33.3240  -33.2560 C   0  0  0  0  0  0  0  0  0  0  0  0
    5.4100  -32.6930  -33.2150 N   0  0  0  0  0  0  0  0  0  0  0  0
    8.9140  -33.8240  -32.3970 C   0  0  0  0  0  0  0  0  0  0  0  0
    9.6310  -33.2540  -31.3470 C   0  0  0  0  0  0  0  0  0  0  0  0
    6.8300  -34.3130  -34.1930 N   0  0  0  0  0  0  0  0  0  0  0  0
    7.6760  -33.0090  -32.4000 C   0  0  0  0  0  0  0  0  0  0  0  0
    8.0130  -34.8100  -34.2610 C   0  0  0  0  0  0  0  0  0  0  0  0
    9.1050  -32.3400  -30.9430 N   0  0  0  0  0  0  0  0  0  0  0  0
   10.7240  -33.7640  -30.6610 C   0  0  0  0  0  0  0  0  0  0  0  0
    9.0180  -34.6290  -33.3040 C   0  0  0  0  0  0  0  0  0  0  0  0
  1  9  1  0
  2  3  1  0
  2  7  1  0
  4  5  2  0
  5  9  1  0
  5 10  1  0
  6  2  2  0
  7  4  1  0
  7  1  2  0
  8  6  1  0
  8 11  2  0
 11  4  1  0
M  END
$$$$

     RDKit          3D

 14 16  0  0  0  0  0  0  0  0999 V2000
    5.3010  -33.1640  -33.7590 C   0  0  0  0  0  0  0  0  0  0  0  0
    5.1290  -35.0890  -34.8640 F   0  0  0  0  0  0  0  0  0  0  0  0
    7.5640  -33.8410  -33.5730 O   0  0  0  0  0  0  0  0  0  0  0  0
    7.3700  -32.0420  -32.2600 C   0  0  0  0  0  0  0  0  0  0  0  0
    9.9370  -34.2570  -33.7120 C   0  0  0  0  0  0  0  0  0  0  0  0
    4.7910  -33.7570  -34.5620 C   0  0  0  0  0  0  0  0  0  0  0  0
    8.7400  -32.5100  -32.2600 C   0  0  0  0  0  0  0  0  0  0  0  0
    6.6750  -32.9460  -33.1390 C   0  0  0  0  0  0  0  0  0  0  0  0
    8.8310  -33.5590  -33.1430 C   0  0  0  0  0  0  0  0  0  0  0  0
   11.8130  -35.2550  -33.9880 N   0  0  0  0  0  0  0  0  0  0  0  0
    4.2550  -33.9760  -33.7120 C   0  0  0  0  0  0  0  0  0  0  0  0
   10.9970  -35.8340  -34.8380 O   0  0  0  0  0  0  0  0  0  0  0  0
   11.2340  -34.2940  -33.1870 C   0  0  0  0  0  0  0  0  0  0  0  0
    9.7500  -35.2650  -34.5950 C   0  0  0  0  0  0  0  0  0  0  0  0
  1 11  1  0
  1  8  1  0
  3  9  1  0
  3  8  1  0
  4  7  1  0
  5 13  1  0
  5  9  1  0
  6  2  1  0
  6  1  1  0
  6 11  1  0
  8  4  2  0
  9  7  2  0
 10 13  2  0
 12 14  1  0
 12 10  1  0
 14  5  2  0
M  END
$$$$

     RDKit          3D

 20 21  0  0  0  0  0  0  0  0999 V2000
    3.7300  -33.9670  -34.8820 C   0  0  0  0  0  0  0  0  0  0  0  0
    2.9260  -34.4320  -37.6040 C   0  0  0  0  0  0  0  0  0  0  0  0
   10.8980  -32.9690  -30.2260 C   0  0  0  0  0  0  0  0  0  0  0  0
    8.6410  -32.0120  -30.8190 C   0  0  0  0  0  0  0  0  0  0  0  0
    7.7390  -33.1830  -32.9330 C   0  0  0  0  0  0  0  0  0  0  0  0
    5.1630  -33.4940  -34.4660 C   0  0  0  0  0  0  0  0  0  0  0  0
    7.0590  -32.2850  -32.3120 N   0  0  0  0  0  0  0  0  0  0  0  0
    8.9480  -31.2520  -29.6890 O   0  0  0  0  0  0  0  0  0  0  0  0
    8.7820  -33.9440  -32.9780 C   0  0  0  0  0  0  0  0  0  0  0  0
   10.1500  -35.3380  -34.6490 C   0  0  0  0  0  0  0  0  0  0  0  0
    7.5060  -35.1760  -34.3090 N   0  0  0  0  0  0  0  0  0  0  0  0
    5.2030  -34.2170  -36.9000 C   0  0  0  0  0  0  0  0  0  0  0  0
    6.0300  -35.2550  -36.1270 C   0  0  0  0  0  0  0  0  0  0  0  0
    9.6630  -32.9370  -31.0630 C   0  0  0  0  0  0  0  0  0  0  0  0
    8.6620  -35.0150  -33.9180 C   0  0  0  0  0  0  0  0  0  0  0  0
    7.4920  -31.6430  -31.2850 N   0  0  0  0  0  0  0  0  0  0  0  0
    3.7650  -34.2170  -36.3900 N   0  0  0  0  0  0  0  0  0  0  0  0
    9.7770  -33.7970  -32.0790 N   0  0  0  0  0  0  0  0  0  0  0  0
    6.0720  -34.8660  -34.5510 C   0  0  0  0  0  0  0  0  0  0  0  0
   11.5680  -32.5630  -29.3660 C   0  0  0  0  0  0  0  0  0  0  0  0
  1  6  1  0
  2 17  1  0
  3 20  2  0
  4  8  2  0
  5  7  2  0
  7 16  1  0
  9  5  1  0
  9 18  2  0
 11 15  1  0
 12 17  1  0
 12 13  1  0
 13 19  1  0
 14  4  1  0
 14  3  1  0
 15 10  1  0
 15  9  1  0
 16  4  1  0
 17  1  1  0
 18 14  1  0
 19  6  1  0
 19 11  1  0
M  END
$$$$

     RDKit          3D

 11 14  0  0  0  0  0  0  0  0999 V2000
    8.4000  -35.9820  -34.4910 C   0  0  0  0  0  0  0  0  0  0  0  0
    6.3570  -31.9870  -32.3610 C   0  0  0  0  0  0  0  0  0  0  0  0
    7.3220  -33.9460  -33.7730 N   0  0  0  0  0  0  0  0  0  0  0  0
    8.1960  -31.7110  -30.6820 C   0  0  0  0  0  0  0  0  0  0  0  0
    6.8510  -31.4110  -31.1730 C   0  0  0  0  0  0  0  0  0  0  0  0
    7.2670  -32.9490  -32.7660 C   0  0  0  0  0  0  0  0  0  0  0  0
    9.1470  -32.6230  -31.1630 N   0  0  0  0  0  0  0  0  0  0  0  0
    7.2600  -35.1380  -34.5870 C   0  0  0  0  0  0  0  0  0  0  0  0
    8.4980  -33.1020  -32.2540 C   0  0  0  0  0  0  0  0  0  0  0  0
    8.7670  -33.8320  -33.3720 C   0  0  0  0  0  0  0  0  0  0  0  0
    9.6660  -35.1370  -33.4760 S   0  0  0  0  0  0  0  0  0  0  0  0
  1 11  1  0
  2  5  2  0
  3  8  1  0
  3 10  1  0
  3  6  1  0
  5  4  1  0
  6  2  1  0
  6  9  1  0
  7  4  1  0
  8  1  1  0
  9  7  2  0
 10 11  1  0
 10  6  1  0
 10  9  1  0
M  END
$$$$

     RDKit          3D

  9  8  0  0  0  0  0  0  0  0999 V2000
    5.5080  -32.8240  -33.9530 C   0  0  0  0  0  0  0  0  0  0  0  0
    5.5160  -34.2870  -34.3810 C   0  0  0  0  0  0  0  0  0  0  0  0
    6.2860  -32.5550  -32.6590 C   0  0  0  0  0  0  0  0  0  0  0  0
    9.2140  -34.5360  -34.1520 C   0  0  0  0  0  0  0  0  0  0  0  0
    7.3000  -35.8810  -35.3210 C   0  0  0  0  0  0  0  0  0  0  0  0
    7.9630  -34.7130  -33.4680 C   0  0  0  0  0  0  0  0  0  0  0  0
    7.3850  -31.4560  -32.7430 C   0  0  0  0  0  0  0  0  0  0  0  0
    6.9180  -34.9440  -34.4590 C   0  0  0  0  0  0  0  0  0  0  0  0
   10.2580  -33.7740  -33.2270 C   0  0  0  0  0  0  0  0  0  0  0  0
  1  3  1  0
  2  1  1  0
  4  6  1  0
  4  9  1  0
  5  8  2  0
  7  3  1  0
  8  2  1  0
  8  6  1  0
M  END
$$$$

     RDKit          3D

 11 12  0  0  0  0  0  0  0  0999 V2000
    6.6520  -35.1270  -34.8610 C   0  0  0  0  0  0  0  0  0  0  0  0
    7.4670  -33.5230  -33.1740 N   0  0  0  0  0  0  0  0  0  0  0  0
    6.6770  -33.9740  -33.8440 C   0  0  0  0  0  0  0  0  0  0  0  0
    4.8810  -35.0480  -35.2280 S   0  0  0  0  0  0  0  0  0  0  0  0
    8.9780  -35.2440  -34.1710 C   0  0  0  0  0  0  0  0  0  0  0  0
    7.9120  -35.7020  -34.9460 C   0  0  0  0  0  0  0  0  0  0  0  0
    4.8470  -33.8680  -34.0710 C   0  0  0  0  0  0  0  0  0  0  0  0
    8.6860  -34.2530  -33.3170 C   0  0  0  0  0  0  0  0  0  0  0  0
    4.8260  -32.6780  -33.2180 C   0  0  0  0  0  0  0  0  0  0  0  0
    9.8980  -33.6650  -32.8040 N   0  0  0  0  0  0  0  0  0  0  0  0
    9.7530  -33.4190  -31.9130 C   0  0  0  0  0  0  0  0  0  0  0  0
  1  3  2  0
  3  2  1  0
  4  1  1  0
  4  7  1  0
  5  8  1  0
  6  1  1  0
  6  5  2  0
  7  3  1  0
  7  9  1  0
  8  2  2  0
  8 10  1  0
 10 11  1  0
M  END
$$$$

     RDKit          3D

 16 18  0  0  0  0  0  0  0  0999 V2000
    6.4430  -32.4930  -32.2130 C   0  0  0  0  0  0  0  0  0  0  0  0
   10.6090  -34.4970  -34.1310 C   0  0  0  0  0  0  0  0  0  0  0  0
    7.8290  -32.6240  -32.3350 C   0  0  0  0  0  0  0  0  0  0  0  0
    8.5190  -33.5900  -33.4040 C   0  0  0  0  0  0  0  0  0  0  0  0
    8.1140  -34.7150  -34.1840 C   0  0  0  0  0  0  0  0  0  0  0  0
    9.9670  -33.5200  -33.3680 C   0  0  0  0  0  0  0  0  0  0  0  0
    4.1120  -32.8750  -33.0920 C   0  0  0  0  0  0  0  0  0  0  0  0
    3.5360  -32.0540  -32.1080 C   0  0  0  0  0  0  0  0  0  0  0  0
    5.7390  -31.6530  -31.2270 C   0  0  0  0  0  0  0  0  0  0  0  0
    4.3700  -31.4730  -31.1700 C   0  0  0  0  0  0  0  0  0  0  0  0
    5.4890  -33.1630  -33.1460 C   0  0  0  0  0  0  0  0  0  0  0  0
    5.8570  -33.9550  -34.2300 N   0  0  0  0  0  0  0  0  0  0  0  0
    6.7400  -34.9410  -34.5860 N   0  0  0  0  0  0  0  0  0  0  0  0
   10.3010  -35.5040  -34.8150 C   0  0  0  0  0  0  0  0  0  0  0  0
    8.8970  -35.6790  -34.8870 C   0  0  0  0  0  0  0  0  0  0  0  0
    8.5190  -31.9210  -31.5650 O   0  0  0  0  0  0  0  0  0  0  0  0
  1  9  1  0
  2  6  1  0
  3  1  1  0
  3 16  2  0
  4  6  2  0
  4  3  1  0
  5  4  1  0
  7  8  2  0
  8 10  1  0
  9 10  2  0
 11  7  1  0
 11  1  2  0
 12 11  1  0
 13 12  1  0
 13  5  1  0
 14  2  2  0
 15 14  1  0
 15  5  2  0
M  END
$$$$

     RDKit          3D

  7  6  0  0  0  0  0  0  0  0999 V2000
   11.5250  -34.8010  -34.1760 N   0  0  0  0  0  0  0  0  0  0  0  0
    9.0850  -34.1740  -33.9590 N   0  0  0  0  0  0  0  0  0  0  0  0
    5.9430  -32.5270  -33.0120 C   0  0  0  0  0  0  0  0  0  0  0  0
    7.2950  -32.8000  -33.0670 C   0  0  0  0  0  0  0  0  0  0  0  0
    4.9990  -33.0590  -33.8260 C   0  0  0  0  0  0  0  0  0  0  0  0
    8.5970  -33.3200  -32.6830 C   0  0  0  0  0  0  0  0  0  0  0  0
   10.3780  -34.2830  -34.0590 C   0  0  0  0  0  0  0  0  0  0  0  0
  1  7  1  0
  2  6  1  0
  4  3  1  0
  4  6  1  0
  5  3  2  0
  7  2  1  0
M  END
$$$$

     RDKit          3D

 18 20  0  0  0  0  0  0  0  0999 V2000
    7.4160  -34.1440  -33.5040 C   0  0  0  0  0  0  0  0  0  0  0  0
   11.4880  -35.1530  -33.9670 F   0  0  0  0  0  0  0  0  0  0  0  0
    8.8810  -35.6840  -34.1320 S   0  0  0  0  0  0  0  0  0  0  0  0
    5.2630  -34.4320  -34.4630 C   0  0  0  0  0  0  0  0  0  0  0  0
    4.4050  -35.1020  -35.1520 O   0  0  0  0  0  0  0  0  0  0  0  0
   11.9120  -33.6390  -32.3180 F   0  0  0  0  0  0  0  0  0  0  0  0
    5.1590  -33.0120  -33.7420 S   0  0  0  0  0  0  0  0  0  0  0  0
    7.4400  -35.9190  -34.8910 C   0  0  0  0  0  0  0  0  0  0  0  0
    6.4820  -31.2090  -31.6080 C   0  0  0  0  0  0  0  0  0  0  0  0
    6.8110  -33.0860  -33.1700 C   0  0  0  0  0  0  0  0  0  0  0  0
    6.6820  -34.8830  -34.3190 C   0  0  0  0  0  0  0  0  0  0  0  0
    9.7120  -33.8620  -32.9520 C   0  0  0  0  0  0  0  0  0  0  0  0
    7.5400  -32.2530  -32.1490 N   0  0  0  0  0  0  0  0  0  0  0  0
    8.7560  -34.4250  -33.3230 N   0  0  0  0  0  0  0  0  0  0  0  0
    9.5320  -32.8600  -32.0180 C   0  0  0  0  0  0  0  0  0  0  0  0
   11.0470  -34.0370  -33.3730 C   0  0  0  0  0  0  0  0  0  0  0  0
    8.6430  -32.2030  -31.7030 C   0  0  0  0  0  0  0  0  0  0  0  0
   11.2580  -33.1550  -34.3760 F   0  0  0  0  0  0  0  0  0  0  0  0
  1 14  1  0
  1 10  2  0
  2 16  1  0
  3 14  1  0
  4 11  1  0
  4  7  1  0
  5  4  2  0
  7 10  1  0
  8 11  2  0
  8  3  1  0
 10 13  1  0
 11  1  1  0
 12 16  1  0
 12 15  1  0
 13 17  1  0
 13  9  1  0
 14 12  1  0
 15 17  2  0
 16  6  1  0
 18 16  1  0
M  END
$$$$
